Version 4
SHEET 1 1688 680
WIRE 608 -368 544 -368
WIRE 736 -368 672 -368
WIRE 528 -272 320 -272
WIRE 544 -272 544 -368
WIRE 544 -272 528 -272
WIRE 736 -272 736 -368
WIRE 768 -272 736 -272
WIRE 864 -272 768 -272
WIRE 992 -272 864 -272
WIRE 992 -224 992 -272
WIRE 528 -208 528 -272
WIRE 768 -208 768 -272
WIRE 864 -208 864 -272
WIRE 528 -80 528 -144
WIRE 640 -80 640 -192
WIRE 640 -80 528 -80
WIRE 768 -80 768 -144
WIRE 768 -80 640 -80
WIRE 864 -80 864 -144
WIRE 864 -80 768 -80
WIRE 912 -80 864 -80
WIRE 992 -80 992 -144
WIRE 992 -80 912 -80
WIRE 464 -48 192 -48
WIRE 912 -48 912 -80
WIRE 192 -16 192 -48
WIRE 0 16 -48 16
WIRE 112 16 80 16
WIRE 320 16 320 -272
WIRE 352 16 320 16
WIRE 464 16 464 -48
WIRE 464 16 416 16
WIRE 672 16 608 16
WIRE 800 16 736 16
WIRE 112 80 112 16
WIRE -48 96 -48 16
WIRE 192 96 192 64
WIRE 544 96 192 96
WIRE 608 96 608 16
WIRE 608 96 544 96
WIRE 800 96 800 16
WIRE 848 96 800 96
WIRE 944 96 848 96
WIRE 1008 96 944 96
WIRE 464 128 464 16
WIRE 1008 128 1008 96
WIRE 320 144 320 16
WIRE 544 144 544 96
WIRE 848 144 848 96
WIRE 944 144 944 96
WIRE 192 160 192 96
WIRE -48 208 -48 176
WIRE 0 208 -48 208
WIRE 112 208 112 160
WIRE 112 208 0 208
WIRE 0 224 0 208
WIRE 192 256 192 240
WIRE 320 256 320 208
WIRE 320 256 192 256
WIRE 352 256 320 256
WIRE 464 256 464 192
WIRE 464 256 416 256
WIRE 544 256 544 208
WIRE 544 256 464 256
WIRE 608 256 544 256
WIRE 704 256 704 176
WIRE 704 256 608 256
WIRE 848 256 848 208
WIRE 848 256 704 256
WIRE 944 256 944 208
WIRE 944 256 848 256
WIRE 1008 256 1008 208
WIRE 1008 256 944 256
WIRE 608 304 608 256
FLAG 0 224 0
FLAG 608 304 0
FLAG 912 -48 0
SYMBOL ind2 96 64 R0
SYMATTR InstName L1
SYMATTR Value 1000
SYMATTR Type ind
SYMBOL ind2 176 -32 R0
SYMATTR InstName L2
SYMATTR Value 10
SYMATTR Type ind
SYMBOL ind2 176 144 R0
SYMATTR InstName L3
SYMATTR Value 10
SYMATTR Type ind
SYMBOL voltage -48 80 R0
WINDOW 123 0 0 Left 0
WINDOW 39 0 0 Left 0
SYMATTR InstName V1
SYMATTR Value SINE(0 166 60)
SYMBOL diode 336 208 R180
WINDOW 0 24 72 Left 0
WINDOW 3 24 0 Left 0
SYMATTR InstName D1
SYMBOL diode 480 192 R180
WINDOW 0 24 72 Left 0
WINDOW 3 24 0 Left 0
SYMATTR InstName D2
SYMBOL diode 416 0 R90
WINDOW 0 0 32 VBottom 0
WINDOW 3 32 32 VTop 0
SYMATTR InstName D3
SYMBOL diode 416 240 R90
WINDOW 0 0 32 VBottom 0
WINDOW 3 32 32 VTop 0
SYMATTR InstName D4
SYMBOL res 96 0 R90
WINDOW 0 0 56 VBottom 0
WINDOW 3 32 56 VTop 0
SYMATTR InstName R1
SYMATTR Value 10
SYMBOL polcap 512 -208 R0
WINDOW 3 24 64 Left 0
SYMATTR Value 680µ
SYMATTR InstName C1
SYMATTR Description Capacitor
SYMATTR Type cap
SYMATTR SpiceLine V=50 Irms=210m Rser=0.45 Lser=0
SYMBOL res 976 -240 R0
SYMATTR InstName R4
SYMATTR Value 30
SYMBOL res 992 112 R0
SYMATTR InstName R2
SYMATTR Value 20
SYMBOL vreg 640 -256 R0
SYMATTR Value LM7812
SYMATTR InstName U1
SYMBOL diode 672 -384 R90
WINDOW 0 0 32 VBottom 0
WINDOW 3 32 32 VTop 0
SYMATTR InstName D5
SYMBOL polcap 528 144 R0
WINDOW 3 24 64 Left 0
SYMATTR Value 680µ
SYMATTR InstName C2
SYMATTR Description Capacitor
SYMATTR Type cap
SYMATTR SpiceLine V=50 Irms=210m Rser=0.45 Lser=0
SYMBOL diode 880 -144 R180
WINDOW 0 24 72 Left 0
WINDOW 3 24 0 Left 0
SYMATTR InstName D7
SYMBOL diode 960 208 R180
WINDOW 0 24 72 Left 0
WINDOW 3 24 0 Left 0
SYMATTR InstName D8
SYMBOL cap 752 -208 R0
SYMATTR InstName C3
SYMATTR Value 100n
SYMBOL cap 832 144 R0
SYMATTR InstName C4
SYMATTR Value 100n
SYMBOL vreg 704 112 R0
SYMATTR Value LM7805
SYMATTR InstName U2
SYMBOL diode 736 0 R90
WINDOW 0 0 32 VBottom 0
WINDOW 3 32 32 VTop 0
SYMATTR InstName D6
TEXT -24 280 Left 0 !K1 L1 L2 L3 0.999
TEXT -80 336 Left 0 !.tran 0 1 0
TEXT -88 360 Left 0 !.include lm78xx.lib
