Version 4
SHEET 1 1688 680
WIRE 672 -176 608 -176
WIRE 816 -176 736 -176
WIRE 544 -80 320 -80
WIRE 608 -80 608 -176
WIRE 608 -80 544 -80
WIRE 816 -80 816 -176
WIRE 816 -80 800 -80
WIRE 848 -80 816 -80
WIRE 944 -80 848 -80
WIRE 1184 -80 944 -80
WIRE 464 -48 192 -48
WIRE 1184 -32 1184 -80
WIRE 192 -16 192 -48
WIRE 544 -16 544 -80
WIRE 848 -16 848 -80
WIRE 944 -16 944 -80
WIRE 0 16 -48 16
WIRE 112 16 80 16
WIRE 320 16 320 -80
WIRE 352 16 320 16
WIRE 464 16 464 -48
WIRE 464 16 416 16
WIRE 112 80 112 16
WIRE -48 96 -48 16
WIRE 192 96 192 64
WIRE 512 96 192 96
WIRE 544 96 544 48
WIRE 544 96 512 96
WIRE 704 96 704 0
WIRE 704 96 544 96
WIRE 848 96 848 48
WIRE 848 96 704 96
WIRE 944 96 944 48
WIRE 944 96 848 96
WIRE 1184 96 1184 48
WIRE 1184 96 944 96
WIRE 464 128 464 16
WIRE 512 128 512 96
WIRE 1184 128 1184 96
WIRE 320 144 320 16
WIRE 544 144 544 96
WIRE 848 144 848 96
WIRE 944 144 944 96
WIRE 192 160 192 96
WIRE 704 176 704 96
WIRE -48 208 -48 176
WIRE 0 208 -48 208
WIRE 112 208 112 160
WIRE 112 208 0 208
WIRE 0 224 0 208
WIRE 192 256 192 240
WIRE 320 256 320 208
WIRE 320 256 192 256
WIRE 352 256 320 256
WIRE 464 256 464 192
WIRE 464 256 416 256
WIRE 544 256 544 208
WIRE 544 256 464 256
WIRE 608 256 544 256
WIRE 816 256 800 256
WIRE 848 256 848 208
WIRE 848 256 816 256
WIRE 944 256 944 208
WIRE 944 256 848 256
WIRE 1184 256 1184 208
WIRE 1184 256 944 256
WIRE 608 336 608 256
WIRE 672 336 608 336
WIRE 816 336 816 256
WIRE 816 336 736 336
FLAG 0 224 0
FLAG 512 128 0
SYMBOL ind2 96 64 R0
SYMATTR InstName L1
SYMATTR Value 1000
SYMATTR Type ind
SYMBOL ind2 176 -32 R0
SYMATTR InstName L2
SYMATTR Value 10
SYMATTR Type ind
SYMBOL ind2 176 144 R0
SYMATTR InstName L3
SYMATTR Value 10
SYMATTR Type ind
SYMBOL voltage -48 80 R0
WINDOW 123 0 0 Left 0
WINDOW 39 0 0 Left 0
SYMATTR InstName V1
SYMATTR Value SINE(0 166 60)
SYMBOL diode 336 208 R180
WINDOW 0 24 72 Left 0
WINDOW 3 24 0 Left 0
SYMATTR InstName D1
SYMBOL diode 480 192 R180
WINDOW 0 24 72 Left 0
WINDOW 3 24 0 Left 0
SYMATTR InstName D2
SYMBOL diode 416 0 R90
WINDOW 0 0 32 VBottom 0
WINDOW 3 32 32 VTop 0
SYMATTR InstName D3
SYMBOL diode 416 240 R90
WINDOW 0 0 32 VBottom 0
WINDOW 3 32 32 VTop 0
SYMATTR InstName D4
SYMBOL res 96 0 R90
WINDOW 0 0 56 VBottom 0
WINDOW 3 32 56 VTop 0
SYMATTR InstName R1
SYMATTR Value 10
SYMBOL polcap 528 -16 R0
WINDOW 3 24 64 Left 0
SYMATTR InstName C1
SYMATTR Value 680µ
SYMATTR Description Capacitor
SYMATTR Type cap
SYMATTR SpiceLine V=50 Irms=210m Rser=0.45 Lser=0
SYMBOL res 1168 -48 R0
SYMATTR InstName R4
SYMATTR Value 10
SYMBOL res 1168 112 R0
SYMATTR InstName R2
SYMATTR Value 10
SYMBOL vreg 704 -64 R0
SYMATTR Value LM7805
SYMATTR InstName U1
SYMBOL vreg 704 240 M180
SYMATTR Value LM7905
SYMATTR InstName U2
SYMBOL diode 736 -192 R90
WINDOW 0 0 32 VBottom 0
WINDOW 3 32 32 VTop 0
SYMATTR InstName D5
SYMBOL diode 672 352 R270
WINDOW 0 32 32 VTop 0
WINDOW 3 0 32 VBottom 0
SYMATTR InstName D6
SYMBOL polcap 528 144 R0
WINDOW 3 24 64 Left 0
SYMATTR InstName C2
SYMATTR Value 680µ
SYMATTR Description Capacitor
SYMATTR Type cap
SYMATTR SpiceLine V=50 Irms=210m Rser=0.45 Lser=0
SYMBOL diode 960 48 R180
WINDOW 0 24 72 Left 0
WINDOW 3 24 0 Left 0
SYMATTR InstName D7
SYMBOL diode 960 208 R180
WINDOW 0 24 72 Left 0
WINDOW 3 24 0 Left 0
SYMATTR InstName D8
SYMBOL cap 832 -16 R0
SYMATTR InstName C3
SYMATTR Value 100n
SYMBOL cap 832 144 R0
SYMATTR InstName C4
SYMATTR Value 100n
TEXT -24 280 Left 0 !K1 L1 L2 L3 0.999
TEXT -82 332 Left 0 !.tran 0 1 0
TEXT -88 360 Left 0 !.include lm78xx.lib
TEXT -88 384 Left 0 !.include lm79xx.lib
